/*--------------------------------*- C++ -*----------------------------------*\
  =========                 |
  \\      /  F ield         | OpenFOAM: The Open Source CFD Toolbox
   \\    /   O peration     | Website:  https://openfoam.org
    \\  /    A nd           | Version:  13
     \\/     M anipulation  |
\*---------------------------------------------------------------------------*/
FoamFile
{
    format      ascii;
    class       dictionary;
    location    "constant";
    object      physicalProperties;
}
// * * * * * * * * * * * * * * * * * * * * * * * * * * * * * * * * * * * * * //

thermoType
{
    type            highEnthalpyThermo; 
    mixture         coefficientWilkeMulticomponentMixture;
    transport       sutherland; // gupta
    thermo          janaf; //rrho;
    energy          sensibleInternalEnergy;
    equationOfState perfectGas;
    specie          specie;
}

highEnthalpyMutation
{
    mixture                 air_11;
    stateModel              ChemNonEqTTv;
    thermodynamicDatabase   RRHO;
    mechanism               none;
    minTemperature          298.15;
    maxTemperature          50000;
    minPressure             1;
    forceThermalEquilibrium no;
}

defaultSpecie N2;

#include "speciesThermo.janaf"

// ************************************************************************* //
